foldedtest
 OpenBabel05242616473D

 12 11  0  0  0  0  0  0  0  0999 V2000
    1.3190    0.9450   -1.1150 S   0  0  0  0  0  0  0  0  0  0  0  0
    1.9390   -0.4740    0.2760 P   0  0  0  0  0  0  0  0  0  0  0  0
    2.3750    0.3090    1.5770 O   0  0  0  0  0  0  0  0  0  0  0  0
    3.2600   -0.9580   -0.4410 O   0  0  0  0  0  0  0  0  0  0  0  0
    0.9840   -1.5340    0.6060 O   0  0  0  0  0  0  0  0  0  0  0  0
   -1.4610    0.7620    0.7540 N   0  0  0  0  0  0  0  0  0  0  0  0
   -1.4250   -1.5710   -0.6270 N   0  3  0  0  0  0  0  0  0  0  0  0
   -2.9120    0.5490    0.8930 C   0  0  0  0  0  0  0  0  0  0  0  0
   -3.4850   -0.2890   -0.2520 C   0  0  0  0  0  0  0  0  0  0  0  0
   -1.1070    1.9430   -0.0260 C   0  0  0  0  0  0  0  0  0  0  0  0
    0.3950    2.1550   -0.1010 C   0  0  0  0  0  0  0  0  0  0  0  0
   -2.8810   -1.6850   -0.3240 C   0  0  0  0  0  0  0  0  0  0  0  0
  1  2  1  0  0  0  0
  1 11  1  0  0  0  0
  2  3  1  0  0  0  0
  2  4  1  0  0  0  0
  2  5  1  0  0  0  0
  6  8  1  0  0  0  0
  6 10  1  0  0  0  0
  7 12  1  0  0  0  0
  8  9  1  0  0  0  0
  9 12  1  0  0  0  0
 10 11  1  0  0  0  0
M  CHG  1   7   1
M  END
$$$$
