
     RDKit          3D

 50 53  0  0  0  0  0  0  0  0999 V2000
  -19.2090   -1.9040  -27.0040 O   0  0  0  0  0  0  0  0  0  0  0  0
  -17.8560    3.8180  -18.1340 O   0  0  0  0  0  0  0  0  0  0  0  0
  -22.5590    4.4260  -19.2980 F   0  0  0  0  0  0  0  0  0  0  0  0
  -18.3130    7.8870  -15.2580 C   0  0  0  0  0  0  0  0  0  0  0  0
  -17.2280    7.3300  -15.9290 C   0  0  0  0  0  0  0  0  0  0  0  0
  -19.5860    7.3510  -15.4270 C   0  0  0  0  0  0  0  0  0  0  0  0
  -17.4160    6.2420  -16.7720 C   0  0  0  0  0  0  0  0  0  0  0  0
  -19.7770    6.2670  -16.2780 C   0  0  0  0  0  0  0  0  0  0  0  0
  -22.3290    2.4570  -20.6000 C   0  0  0  0  0  0  0  0  0  0  0  0
  -21.5300    1.4070  -21.0450 C   0  0  0  0  0  0  0  0  0  0  0  0
  -19.9580    0.0740  -23.4110 C   0  0  0  0  0  0  0  0  0  0  0  0
  -19.8530   -0.6610  -24.5800 C   0  0  0  0  0  0  0  0  0  0  0  0
  -18.5660   -1.5670  -22.3350 C   0  0  0  0  0  0  0  0  0  0  0  0
  -19.6640    2.3100  -19.7880 C   0  0  0  0  0  0  0  0  0  0  0  0
  -18.2670   -4.9440  -25.4780 C   0  0  0  0  0  0  0  0  0  0  0  0
  -18.0830   -4.8420  -23.9660 C   0  0  0  0  0  0  0  0  0  0  0  0
  -19.3850   -4.0660  -26.0450 C   0  0  0  0  0  0  0  0  0  0  0  0
  -17.5170   -3.5000  -23.4960 C   0  0  0  0  0  0  0  0  0  0  0  0
  -20.0550    4.3590  -18.4440 N   0  0  0  0  0  0  0  0  0  0  0  0
  -19.3550    0.2850  -21.0380 N   0  0  0  0  0  0  0  0  0  0  0  0
  -19.1900   -2.5590  -25.9780 C   0  0  0  0  0  0  0  0  0  0  0  0
  -18.8110    4.5370  -17.8910 C   0  0  0  0  0  0  0  0  0  0  0  0
  -21.7950    3.3990  -19.7510 C   0  0  0  0  0  0  0  0  0  0  0  0
  -19.3200   -0.3880  -22.2540 C   0  0  0  0  0  0  0  0  0  0  0  0
  -20.1920    1.3400  -20.6500 C   0  0  0  0  0  0  0  0  0  0  0  0
  -18.6930    5.7130  -16.9630 C   0  0  0  0  0  0  0  0  0  0  0  0
  -18.4590   -2.3110  -23.5050 C   0  0  0  0  0  0  0  0  0  0  0  0
  -20.4670    3.3450  -19.3180 C   0  0  0  0  0  0  0  0  0  0  0  0
  -19.1440   -1.8640  -24.6490 C   0  0  0  0  0  0  0  0  0  0  0  0
  -18.1660    8.7360  -14.5950 H   0  0  0  0  0  0  0  0  0  0  0  0
  -16.2320    7.7420  -15.7920 H   0  0  0  0  0  0  0  0  0  0  0  0
  -20.4320    7.7710  -14.8900 H   0  0  0  0  0  0  0  0  0  0  0  0
  -16.5830    5.7820  -17.2940 H   0  0  0  0  0  0  0  0  0  0  0  0
  -20.7730    5.8390  -16.3690 H   0  0  0  0  0  0  0  0  0  0  0  0
  -23.3720    2.5370  -20.8920 H   0  0  0  0  0  0  0  0  0  0  0  0
  -21.9550    0.6340  -21.6770 H   0  0  0  0  0  0  0  0  0  0  0  0
  -20.5030    1.0110  -23.4050 H   0  0  0  0  0  0  0  0  0  0  0  0
  -20.3310   -0.3000  -25.4870 H   0  0  0  0  0  0  0  0  0  0  0  0
  -18.0390   -1.9070  -21.4440 H   0  0  0  0  0  0  0  0  0  0  0  0
  -18.6250    2.2730  -19.4830 H   0  0  0  0  0  0  0  0  0  0  0  0
  -17.3190   -4.7040  -25.9790 H   0  0  0  0  0  0  0  0  0  0  0  0
  -18.4980   -5.9840  -25.7400 H   0  0  0  0  0  0  0  0  0  0  0  0
  -19.0370   -5.0420  -23.4590 H   0  0  0  0  0  0  0  0  0  0  0  0
  -17.3900   -5.6310  -23.6480 H   0  0  0  0  0  0  0  0  0  0  0  0
  -19.5420   -4.2960  -27.1030 H   0  0  0  0  0  0  0  0  0  0  0  0
  -20.3190   -4.2930  -25.5110 H   0  0  0  0  0  0  0  0  0  0  0  0
  -17.1370   -3.6180  -22.4740 H   0  0  0  0  0  0  0  0  0  0  0  0
  -16.6410   -3.2550  -24.1140 H   0  0  0  0  0  0  0  0  0  0  0  0
  -20.7530    5.0660  -18.2690 H   0  0  0  0  0  0  0  0  0  0  0  0
  -18.5860    0.0940  -20.4130 H   0  0  0  0  0  0  0  0  0  0  0  0
  5  4  2  0
  6  4  1  0
  7  5  1  0
  8  6  2  0
 10  9  2  0
 12 11  2  0
 16 15  1  0
 17 15  1  0
 18 16  1  0
 21 17  1  0
 21  1  2  0
 22 19  1  0
 22  2  2  0
 23  9  1  0
 23  3  1  0
 24 13  2  0
 24 11  1  0
 24 20  1  0
 25 20  1  0
 25 14  2  0
 25 10  1  0
 26 22  1  0
 26  7  2  0
 26  8  1  0
 27 18  1  0
 27 13  1  0
 28 23  2  0
 28 19  1  0
 28 14  1  0
 29 27  2  0
 29 21  1  0
 29 12  1  0
 30  4  1  0
 31  5  1  0
 32  6  1  0
 33  7  1  0
 34  8  1  0
 35  9  1  0
 36 10  1  0
 37 11  1  0
 38 12  1  0
 39 13  1  0
 40 14  1  0
 41 15  1  0
 42 15  1  0
 43 16  1  0
 44 16  1  0
 45 17  1  0
 46 17  1  0
 47 18  1  0
 48 18  1  0
 49 19  1  0
 50 20  1  0
M  END
>  <Energy>  (1) 
-35013.061187368694

$$$$
